LAMMPS (11 Aug 2017)
# Initialize simulation
units           real
atom_style      charge

# Read the restart file from the NPT simulation
read_restart    restart.NPT
  orthogonal box = (-0.0363281 -0.0363281 -0.0363281) to (10.9712 10.9712 10.9712)
  96 atoms

# Apply the ReaxFF potential
pair_style      reax 10.0 0 1 1.0e-6
pair_coeff      * * ffield.reax 4 3

# Neighbor settings
neighbor        2 bin
neigh_modify    every 10 delay 0 check no

# Set up NVT ensemble
fix             1 all nvt temp 300.0 300.0 100.0   # Nose-Hoover thermostat for NVT

# Output settings
timestep        1.0
thermo          100
thermo_style    custom step temp press pe ke etotal

dump            2 all custom 1000 dump_nvt.lammpstrj id type x y z vx vy vz q

# Run the NVT simulation
run             10000
Unused restart file global fix info:
  fix style: npt, fix ID: 1
  update every 10 steps, delay 0 steps, check no
Step Temp Press PotEng KinEng TotEng
10000    328.34422   -6447.7301   -16434.981    92.979517   -16342.002
Averages over the last 51 of 101 rows, steps 15000 to 20000:
Temp Press PotEng KinEng TotEng
300.569 -5962.57 -16424.8 85.1143 -16339.7
Loop time of 310.198 on 1 procs for 10000 steps with 96 atoms

                                                                                                                                                                                                                                                                                                                                                                                                                                                                                                                                                                                                                                                                                                                                                                                                                                                                                                                                                                                                                                                                                                                                                                                                                                                                                                                                                                                                                                                                                                                                                                                                                                                                                                                                                                                                                                                                                                                                                                                                                                                                                                                                                                                                                                                                                                                                                                                                                                                                                                                                 write_restart restart.NPT
